LTspice 24.0.12 for Windows
Circuit: * C:\Users\NJ\Documents\My Inventions\CAn\FemtoAmmeter\0. Simulations\Charge Amplifier\ADA4530_1_FAM_v2.asc
Start Time: Wed Sep 24 22:39:20 2025
solver = Normal
Maximum thread count: 8
tnom = 27
temp = 27
method = modified trap
WARNING: Less than two connections to node vout.  This node is used by rout.
Direct Newton iteration failed to find .op point.  (Use ".option noopiter" to skip.)
Starting Gmin stepping
Gmin = 10
Gmin = 1.07374
vernier = 0.5
vernier = 0.25
vernier = 0.125
vernier = 0.0625
vernier = 0.03125
Gmin = 1.0412
vernier = 0.015625
vernier = 0.0078125
Gmin = 1.0132
vernier = 0.00390625
vernier = 0.00195312
Gmin = 1.00827
vernier = 0.00260417
vernier = 0.00130208
Gmin = 1.00515
vernier = 0.000651042
vernier = 0.000868055
vernier = 0.000434028
Gmin = 1.00434
vernier = 0.000578703
vernier = 0.000434027
Gmin = 1.00339
Gmin = 0
Gmin stepping failed

Starting source stepping with srcstepmethod=0
Source Step = 3.0303%
Source Step = 16.6667%
Source Step = 24.2424%
Source Step = 31.8182%
Source Step = 39.3939%
Source Step = 46.9697%
vernier = 0.375
Source Step = 56.4394%
Source Step = 67.803%
Source Step = 79.1667%
Source Step = 90.5303%
Source stepping succeeded in finding the operating point.

Heightened Def Con from 0.01 ++to 0.01
Total elapsed time: 1.895 seconds.

